[Format]      =  4.0
[Frequency]   =  0
[Precision]   =  1e-008
[MinAngle]    =  30
[Depth]       =  2
[LengthUnits] =  inches
[ProblemType] =  planar
[Coordinates] =  cartesian
[ACSolver]    =  0
[Comment]     =  "Add comments here."
[PointProps]   = 0
[BdryProps]   = 1
  <BeginBdry>
    <BdryName> = "ABC"
    <BdryType> = 2
    <A_0> = 0
    <A_1> = 0
    <A_2> = 0
    <Phi> = 0
    <c0> = 5221618.8678443348
    <c0i> = 0
    <c1> = 0
    <c1i> = 0
    <Mu_ssd> = 0
    <Sigma_ssd> = 0
  <EndBdry>
[BlockProps]  = 5
  <BeginBlock>
    <BlockName> = "Air"
    <Mu_x> = 1
    <Mu_y> = 1
    <H_c> = 0
    <H_cAngle> = 0
    <J_re> = 0
    <J_im> = 0
    <Sigma> = 0
    <d_lam> = 0
    <Phi_h> = 0
    <Phi_hx> = 0
    <Phi_hy> = 0
    <LamType> = 0
    <LamFill> = 1
    <NStrands> = 0
    <WireD> = 0
    <BHPoints> = 0
  <EndBlock>
  <BeginBlock>
    <BlockName> = "NdFeB 45 MGOe"
    <Mu_x> = 1.0489999999999999
    <Mu_y> = 1.0489999999999999
    <H_c> = 923000
    <H_cAngle> = 0
    <J_re> = 0
    <J_im> = 0
    <Sigma> = 0.66700000000000004
    <d_lam> = 0
    <Phi_h> = 0
    <Phi_hx> = 0
    <Phi_hy> = 0
    <LamType> = 0
    <LamFill> = 1
    <NStrands> = 0
    <WireD> = 0
    <BHPoints> = 0
  <EndBlock>
  <BeginBlock>
    <BlockName> = "18 AWG"
    <Mu_x> = 1
    <Mu_y> = 1
    <H_c> = 0
    <H_cAngle> = 0
    <J_re> = 0
    <J_im> = 0
    <Sigma> = 58
    <d_lam> = 0
    <Phi_h> = 0
    <Phi_hx> = 0
    <Phi_hy> = 0
    <LamType> = 3
    <LamFill> = 1
    <NStrands> = 1
    <WireD> = 1.0239652968433499
    <BHPoints> = 0
  <EndBlock>
  <BeginBlock>
    <BlockName> = "Copper"
    <Mu_x> = 1
    <Mu_y> = 1
    <H_c> = 0
    <H_cAngle> = 0
    <J_re> = 0
    <J_im> = 0
    <Sigma> = 58
    <d_lam> = 0
    <Phi_h> = 0
    <Phi_hx> = 0
    <Phi_hy> = 0
    <LamType> = 0
    <LamFill> = 1
    <NStrands> = 0
    <WireD> = 0
    <BHPoints> = 0
  <EndBlock>
  <BeginBlock>
    <BlockName> = "Pure Iron"
    <Mu_x> = 14872
    <Mu_y> = 14872
    <H_c> = 0
    <H_cAngle> = 0
    <J_re> = 0
    <J_im> = 0
    <Sigma> = 10.44
    <d_lam> = 0
    <Phi_h> = 0
    <Phi_hx> = 0
    <Phi_hy> = 0
    <LamType> = 0
    <LamFill> = 1
    <NStrands> = 0
    <WireD> = 0
    <BHPoints> = 21
      0	0
      0.22706499999999999	13.898400000000001
      0.45412999999999998	27.796700000000001
      0.68119499999999999	42.397399999999998
      0.90825999999999996	61.415700000000001
      1.13533	82.382400000000004
      1.36239	144.66900000000001
      1.58935	897.75999999999999
      1.81236	4581.7399999999998
      2.01004	17736.200000000001
      2.1331600000000002	41339.300000000003
      2.1999900000000001	68321.800000000003
      2.2547899999999998	95685.5
      2.2999299999999998	123355
      2.3425099999999999	151083
      2.3787600000000002	178954
      2.4150100000000001	206825
      2.45126	234696
      2.4874999999999998	262568
      2.5237500000000002	290439
      2.5600000000000001	318310
  <EndBlock>
[CircuitProps]  = 0
[NumPoints] = 34
-1.5	2	0	0
1.5	2	0	0
-1.5	3	0	0
1.5	3	0	0
-2	-1.4999999999999998	0	0
-2	1.5000000000000002	0	0
-3	-1.4999999999999998	0	0
-3	1.5000000000000002	0	0
1.4999999999999996	-2	0	0
-1.5000000000000004	-2	0	0
1.4999999999999996	-3	0	0
-1.5000000000000004	-3	0	0
2	1.4999999999999993	0	0
2	-1.5000000000000007	0	0
3	1.4999999999999993	0	0
3	-1.5000000000000007	0	0
0	6	0	0
0	-6	0	0
0	1.8999999999999999	0	0
0	-1.8999999999999999	0	0
0	1.5	0	0
0	-1.5	0	0
-2	3.5	0	0
2	3.5	0	0
-3.5	2	0	0
3.5	2	0	0
-3.5	-2	0	0
3.5	-2	0	0
2	-3.5	0	0
-2	-3.5	0	0
2	2	0	0
-2	2	0	0
-2	-2	0	0
2	-2	0	0
[NumSegments] = 36
2	3	-1	0	0	0
3	1	-1	0	0	0
1	0	-1	0	0	0
0	2	-1	0	0	0
12	14	-1	0	0	0
14	15	-1	0	0	0
15	13	-1	0	0	0
13	12	-1	0	0	0
8	10	-1	0	0	0
10	11	-1	0	0	0
11	9	-1	0	0	0
8	9	-1	0	0	0
4	6	-1	0	0	0
6	7	-1	0	0	0
5	4	-1	0	0	0
7	5	-1	0	0	0
22	23	-1	0	0	0
25	27	-1	0	0	0
28	29	-1	0	0	0
26	24	-1	0	0	0
25	30	-1	0	0	0
30	12	-1	0	0	0
23	30	-1	0	0	0
30	1	-1	0	0	0
31	0	-1	0	0	0
31	5	-1	0	0	0
31	22	-1	0	0	0
24	31	-1	0	0	0
26	32	-1	0	0	0
4	32	-1	0	0	0
32	9	-1	0	0	0
29	32	-1	0	0	0
28	33	-1	0	0	0
33	8	-1	0	0	0
33	13	-1	0	0	0
33	27	-1	0	0	0
[NumArcSegments] = 6
16	17	180	1	1	0	0
17	16	180	1	1	0	0
18	19	180	1	0	0	0
19	18	180	1	0	0	0
20	21	180	1	0	0	0
21	20	180	1	0	0	0
[NumHoles] = 0
[NumBlockLabels] = 12
-0.10000000000000001	2.6699999999999999	2	-1	0	90	0	1	0
2.5699999999999998	0.22	2	-1	0	180	0	1	0
0.81000000000000005	-2.5099999999999998	2	-1	0	-90	0	1	0
-2.6099999999999999	0.070000000000000007	2	-1	0	0	0	1	0
0.059999999999999998	1.7	4	-1	0	0	0	1	0
0.17999999999999999	0.88	1	-1	0	0	0	1	0
0.34999999999999998	4.6500000000000004	1	-1	0	0	0	1	0
1.46	1.6000000000000001	1	-1	0	0	0	1	0
-1.6799999999999999	3.23	5	-1	0	0	0	1	0
-3.1299999999999999	1.6799999999999999	5	-1	0	0	0	1	0
-1.8200000000000001	-2.3999999999999999	5	-1	0	0	0	1	0
2.7000000000000002	-1.78	5	-1	0	0	0	1	0
