[Format]      =  1
[Precision]   =  1e-008
[MinAngle]    =  30
[Depth]       =  1
[LengthUnits] =  inches
[ProblemType] =  axisymmetric
[Coordinates] =  cartesian
[PrevSoln] = ""
[dT] = 0
[Comment]     =  "Add comments here."
[PointProps]   = 0
[BdryProps]   = 2
  <BeginBdry>
    <BdryName> = "N2"
    <BdryType> = 0
    <Tset> = 77
    <qs>   = 0
    <beta> = 0
    <h>    = 0
    <Tinf> = 0
  <EndBdry>
  <BeginBdry>
    <BdryName> = "Convection"
    <BdryType> = 2
    <Tset> = 0
    <qs>   = 0
    <beta> = 0
    <h>    = 40
    <Tinf> = 300
  <EndBdry>
[BlockProps]  = 5
  <BeginBlock>
    <BlockName> = "Copper w heat"
    <Kx> = 1.2
    <Ky> = 1.2
    <Kt> = 3
    <qv> = 2500000
  <EndBlock>
  <BeginBlock>
    <BlockName> = "Copper, Pure"
    <Kx> = 401
    <Ky> = 401
    <Kt> = 3
    <qv> = 0
    <TKPoints> = 6
      273	401
      473	389
      673	378
      873	366
      1073	352
      1273	336
  <EndBlock>
  <BeginBlock>
    <BlockName> = "Aluminum, 2024-T6"
    <Kx> = 171
    <Ky> = 171
    <Kt> = 3
    <qv> = 0
    <TKPoints> = 2
      273	171
      473	186
  <EndBlock>
  <BeginBlock>
    <BlockName> = "Corkboard"
    <Kx> = 0.042999999999999997
    <Ky> = 0.042999999999999997
    <Kt> = 3
    <qv> = 0
  <EndBlock>
  <BeginBlock>
    <BlockName> = "Air"
    <Kx> = 0.018100000000000002
    <Ky> = 0.018100000000000002
    <Kt> = 3
    <qv> = 0
    <TKPoints> = 18
      200	0.018100000000000002
      250	0.0223
      300	0.026100000000000002
      350	0.029700000000000001
      400	0.033099999999999997
      450	0.036299999999999999
      500	0.0395
      550	0.042599999999999999
      600	0.045600000000000002
      700	0.051299999999999998
      800	0.056899999999999999
      900	0.0625
      1000	0.067199999999999996
      1200	0.075899999999999995
      1400	0.083500000000000005
      1600	0.090399999999999994
      1800	0.097000000000000003
      2000	0.1032
  <EndBlock>
[ConductorProps]  = 1
  <BeginConductor>
    <ConductorName> = "N2"
    <Tc> = 77
    <qc> = 0
    <ConductorType> = 1
  <EndConductor>
[NumPoints] = 17
1.5	0	0	0	0
1.5	3	0	0	0
2	0	0	0	0
2	3	0	0	0
1.3999999999999999	0	0	0	0
1.3999999999999999	3	0	0	0
1.2999999999999998	0	0	0	0
1.2999999999999998	3	0	0	0
1.5999999999999999	1.5	0	0	0
1.6249999999999998	0	0	0	0
1.675	0	0	0	0
1.6249999999999998	3	0	0	0
1.675	3	0	0	0
1.8	0	0	0	0
1.8500000000000001	0	0	0	0
1.8	3	0	0	0
1.8500000000000001	3	0	0	0
[NumSegments] = 22
0	1	-1	0	0	0	0
4	5	-1	0	0	0	0
7	5	-1	0	0	0	0
7	6	-1	2	0	0	0
6	4	-1	0	0	0	0
11	9	-1	0	0	0	1
10	12	-1	0	0	0	1
5	1	-1	0	0	0	1
1	11	-1	0	0	0	1
11	12	-1	0	0	0	1
12	15	-1	0	0	0	1
3	2	-1	0	0	0	1
2	14	-1	0	0	0	1
10	9	-1	0	0	0	1
9	0	-1	0	0	0	1
0	4	-1	0	0	0	1
13	10	-1	0	0	0	1
14	13	-1	0	0	0	1
15	16	-1	0	0	0	1
16	3	-1	0	0	0	1
15	13	-1	0	0	0	1
14	16	-1	0	0	0	1
[NumArcSegments] = 0
[NumHoles] = 0
[NumBlockLabels] = 7
1.4300000000000002	2.73	3	-1	0	0
1.3399999999999999	1.4299999999999999	4	-1	0	0
1.9099999999999999	2.2599999999999998	1	0.01	0	0
1.5700000000000001	2.27	1	0.01	0	0
1.6499999999999999	2.4500000000000002	5	-1	0	0
1.74	2.5800000000000001	1	-1	0	0
1.8200000000000001	2.52	5	-1	0	0
