[Format]      =  1
[Precision]   =  1e-008
[MinAngle]    =  30
[Depth]       =  1
[LengthUnits] =  inches
[ProblemType] =  axisymmetric
[Coordinates] =  cartesian
[PrevSoln] = ""
[dT] = 0
[Comment]     =  "Add comments here."
[PointProps]   = 0
[BdryProps]   = 1
  <BeginBdry>
    <BdryName> = "Convection to Room"
    <BdryType> = 2
    <Tset> = 0
    <qs>   = 0
    <beta> = 0
    <h>    = 20
    <Tinf> = 300
  <EndBdry>
[BlockProps]  = 3
  <BeginBlock>
    <BlockName> = "Copper, with heat"
    <Kx> = 401
    <Ky> = 401
    <Kt> = 3
    <qv> = 2500000
    <TKPoints> = 6
      273	401
      473	389
      673	378
      873	366
      1073	352
      1273	336
  <EndBlock>
  <BeginBlock>
    <BlockName> = "Teflon"
    <Kx> = 0.34999999999999998
    <Ky> = 0.34999999999999998
    <Kt> = 3
    <qv> = 0
  <EndBlock>
  <BeginBlock>
    <BlockName> = "Aluminum, 2024-T6"
    <Kx> = 171
    <Ky> = 171
    <Kt> = 3
    <qv> = 0
    <TKPoints> = 2
      273	171
      473	186
  <EndBlock>
[ConductorProps]  = 1
  <BeginConductor>
    <ConductorName> = "LN2"
    <Tc> = 77
    <qc> = 0
    <ConductorType> = 1
  <EndConductor>
[NumPoints] = 21
0	0	0	0	0
1.5	0	0	0	0
2	0	0	0	0
1.5	3	0	0	0
2	3	0	0	0
1.5625	3	0	0	0
1.9375	3	0	0	0
1.5625	0.0625	0	0	0
1.9375	0.0625	0	0	0
1.5625	0.75	0	0	0
1.5625	0.8125	0	0	0
1.9375	0.75	0	0	0
1.9375	0.8125	0	0	0
1.5625	1.5	0	0	0
1.5625	1.5625	0	0	0
1.9375	1.5	0	0	0
1.9375	1.5625	0	0	0
1.5625	2.25	0	0	0
1.5625	2.3125	0	0	0
1.9375	2.25	0	0	0
1.9375	2.3125	0	0	0
[NumSegments] = 27
3	1	-1	1	0	0	0
1	2	-1	1	0	0	0
2	4	-1	1	0	0	0
3	5	-1	0	0	0	0
5	18	-1	0	0	0	1
18	17	-1	0	0	0	1
17	14	-1	0	0	0	1
14	13	-1	0	0	0	1
13	10	-1	0	0	0	1
7	8	-1	0	0	0	1
8	11	-1	0	0	0	1
6	4	-1	0	0	0	0
5	6	-1	0	0	0	0
9	7	-1	0	0	0	1
10	9	-1	0	0	0	1
11	12	-1	0	0	0	1
12	15	-1	0	0	0	1
15	16	-1	0	0	0	1
16	19	-1	0	0	0	1
19	20	-1	0	0	0	1
20	6	-1	0	0	0	1
10	12	-1	0	0	0	0
11	9	-1	0	0	0	0
14	16	-1	0	0	0	0
15	13	-1	0	0	0	0
18	20	-1	0	0	0	0
19	17	-1	0	0	0	0
[NumArcSegments] = 0
[NumHoles] = 0
[NumBlockLabels] = 8
1.96	2.9100000000000001	2	-1	0	0
1.74	0.79000000000000004	3	-1	0	0
1.74	1.54	3	-1	0	0
1.74	2.29	3	-1	0	0
1.78	2.6299999999999999	1	-1	0	0
1.8	1.9399999999999999	1	-1	0	0
1.8400000000000001	1.0700000000000001	1	-1	0	0
1.74	0.45000000000000001	1	-1	0	0
